results/2026-03-10/bilevel_comparisons_single_period/solution_bus_motivation_c_palma.csv
bus_id,vm_avg,z_voltage
1,1.03,1.0
2,1.0300000115736425,1.0
3,1.031153069080242,1.0
4,1.0302296597879517,1.0
5,1.031153069080242,1.0
6,1.040040513382031,1.0
7,1.0304344214516938,1.0
8,0.0,0.0
9,1.0323465968674526,1.0
10,1.0323465968674526,1.0
11,1.0302296503708561,1.0
12,1.0309199274314924,1.0
13,1.0300000035344083,1.0
14,0.0,0.0
15,1.0309199274314924,1.0
16,1.0323465968674526,1.0
17,1.0304344214516938,1.0
18,1.0300000035344083,1.0
19,0.0,0.0
20,1.031153069080242,1.0
